R1-12.47-4.glm
// $Id: R1-12.47-4.glm 
// 12.47 kV feeder 
//********************************************* 
clock{ 
     timestamp '2000-01-01 0:00:00'; 
     stoptime '2000-01-01 1:00:00'; 
     timezone EST+8EDT; 
} 

#set profiler=1 
//********************************************* 
// modules 
module tape; 
module powerflow{ 
     solver_method NR; 
      default_maximum_voltage_error 1e-6;
}; 

//********************************************* 
object regulator:876 { 
     name R1-12-47-4_reg_1; 
     from R1-12-47-4_node_305; 
     to R1-12-47-4_meter_13; 
     phases ABCN; 
     configuration feeder_reg_cfg; 
} 

object regulator_configuration:877 { 
     name feeder_reg_cfg; 
     Control OUTPUT_VOLTAGE; 
     band_center 7500.0; 
     band_width 120; 
     connect_type WYE_WYE; 
     time_delay 30; 
     raise_taps 16; 
     lower_taps 16; 
     regulation 0.10; 
     tap_pos_A 0; 
     tap_pos_B 0; 
     tap_pos_C 0; 
} 

object capacitor:874 { 
     name R1-12-47-4_cap_1; 
     phases ABCN; 
     pt_phase B; 
     parent R1-12-47-4_node_233; 
     phases_connected ABC; 
     control VOLT; 
     voltage_set_high 7300; 
     voltage_set_low 7100; 
     capacitor_A 0.6 MVAr; 
     capacitor_B 0.6 MVAr; 
     capacitor_C 0.6 MVAr; 
     control_level INDIVIDUAL; 
     time_delay 30.0; 
     dwell_time 30.0; 
     cap_nominal_voltage 6930; 
     nominal_voltage 7200; 
} 

object fuse:809 { 
     name R1-12-47-4_fuse_1; 
     phases ABCN; 
     from R1-12-47-4_node_10; 
     to R1-12-47-4_node_169; 
     current_limit 15; 
     status CLOSED; 
} 

object fuse:810 { 
     name R1-12-47-4_fuse_2; 
     phases AN; 
     from R1-12-47-4_node_21; 
     to R1-12-47-4_node_287; 
     current_limit 15; 
     status CLOSED; 
} 

object fuse:811 { 
     name R1-12-47-4_fuse_3; 
     phases AN; 
     from R1-12-47-4_node_24; 
     to R1-12-47-4_node_288; 
     current_limit 15; 
     status CLOSED; 
} 

object fuse:812 { 
     name R1-12-47-4_fuse_4; 
     phases AN; 
     from R1-12-47-4_node_27; 
     to R1-12-47-4_node_289; 
     current_limit 25; 
     status CLOSED; 
} 

object fuse:813 { 
     name R1-12-47-4_fuse_5; 
     phases CN; 
     from R1-12-47-4_node_38; 
     to R1-12-47-4_node_290; 
     current_limit 15; 
     status CLOSED; 
} 

object fuse:814 { 
     name R1-12-47-4_fuse_6; 
     phases CN; 
     from R1-12-47-4_node_41; 
     to R1-12-47-4_node_291; 
     current_limit 15; 
     status CLOSED; 
} 

object fuse:815 { 
     name R1-12-47-4_fuse_7; 
     phases CN; 
     from R1-12-47-4_node_43; 
     to R1-12-47-4_node_292; 
     current_limit 25; 
     status CLOSED; 
} 

object fuse:816 { 
     name R1-12-47-4_fuse_8; 
     phases CN; 
     from R1-12-47-4_node_50; 
     to R1-12-47-4_node_293; 
     current_limit 15; 
     status CLOSED; 
} 

object fuse:817 { 
     name R1-12-47-4_fuse_9; 
     phases ABCN; 
     from R1-12-47-4_node_54; 
     to R1-12-47-4_node_294; 
     current_limit 20; 
     status CLOSED; 
} 

object fuse:818 { 
     name R1-12-47-4_fuse_10; 
     phases ABCN; 
     from R1-12-47-4_node_55; 
     to R1-12-47-4_node_295; 
     current_limit 30; 
     status CLOSED; 
} 

object fuse:819 { 
     name R1-12-47-4_fuse_11; 
     phases ABCN; 
     from R1-12-47-4_node_57; 
     to R1-12-47-4_node_296; 
     current_limit 15; 
     status CLOSED; 
} 

object fuse:820 { 
     name R1-12-47-4_fuse_12; 
     phases ABCN; 
     from R1-12-47-4_node_59; 
     to R1-12-47-4_node_297; 
     current_limit 25; 
     status CLOSED; 
} 

object fuse:821 { 
     name R1-12-47-4_fuse_13; 
     phases ABCN; 
     from R1-12-47-4_node_61; 
     to R1-12-47-4_node_298; 
     current_limit 25; 
     status CLOSED; 
} 

object fuse:822 { 
     name R1-12-47-4_fuse_14; 
     phases ABCN; 
     from R1-12-47-4_node_63; 
     to R1-12-47-4_node_299; 
     current_limit 25; 
     status CLOSED; 
} 

object fuse:823 { 
     name R1-12-47-4_fuse_15; 
     phases ABCN; 
     from R1-12-47-4_node_64; 
     to R1-12-47-4_node_300; 
     current_limit 25; 
     status CLOSED; 
} 

object fuse:824 { 
     name R1-12-47-4_fuse_16; 
     phases AN; 
     from R1-12-47-4_node_19; 
     to R1-12-47-4_node_301; 
     current_limit 25; 
     status CLOSED; 
} 

object fuse:825 { 
     name R1-12-47-4_fuse_17; 
     phases AN; 
     from R1-12-47-4_node_30; 
     to R1-12-47-4_node_260; 
     current_limit 40; 
     status CLOSED; 
} 

object fuse:826 { 
     name R1-12-47-4_fuse_18; 
     phases CN; 
     from R1-12-47-4_node_30; 
     to R1-12-47-4_node_268; 
     current_limit 40; 
     status CLOSED; 
} 

object fuse:827 { 
     name R1-12-47-4_fuse_19; 
     phases ABCN; 
     from R1-12-47-4_node_30; 
     to R1-12-47-4_node_274; 
     current_limit 40; 
     status CLOSED; 
} 

object fuse:828 { 
     name R1-12-47-4_fuse_20; 
     phases ABCN; 
     from R1-12-47-4_node_56; 
     to R1-12-47-4_node_276; 
     current_limit 65; 
     status CLOSED; 
} 

object fuse:829 { 
     name R1-12-47-4_fuse_21; 
     phases ABCN; 
     from R1-12-47-4_node_58; 
     to R1-12-47-4_node_195; 
     current_limit 15; 
     status CLOSED; 
} 

object fuse:830 { 
     name R1-12-47-4_fuse_22; 
     phases ABCN; 
     from R1-12-47-4_node_84; 
     to R1-12-47-4_node_196; 
     current_limit 65; 
     status CLOSED; 
} 

object fuse:831 { 
     name R1-12-47-4_fuse_23; 
     phases ABCN; 
     from R1-12-47-4_node_87; 
     to R1-12-47-4_node_197; 
     current_limit 15; 
     status CLOSED; 
} 

object fuse:832 { 
     name R1-12-47-4_fuse_24; 
     phases ABCN; 
     from R1-12-47-4_node_91; 
     to R1-12-47-4_node_198; 
     current_limit 25; 
     status CLOSED; 
} 

object fuse:833 { 
     name R1-12-47-4_fuse_25; 
     phases ABCN; 
     from R1-12-47-4_node_93; 
     to R1-12-47-4_node_199; 
     current_limit 25; 
     status CLOSED; 
} 

object fuse:834 { 
     name R1-12-47-4_fuse_26; 
     phases ABCN; 
     from R1-12-47-4_node_170; 
     to R1-12-47-4_node_73; 
     current_limit 65; 
     status CLOSED; 
} 

object fuse:835 { 
     name R1-12-47-4_fuse_27; 
     phases ABCN; 
     from R1-12-47-4_node_175; 
     to R1-12-47-4_node_74; 
     current_limit 65; 
     status CLOSED; 
} 

object fuse:836 { 
     name R1-12-47-4_fuse_28; 
     phases ABCN; 
     from R1-12-47-4_node_176; 
     to R1-12-47-4_node_77; 
     current_limit 90; 
     status CLOSED; 
} 

object fuse:837 { 
     name R1-12-47-4_fuse_29; 
     phases ABCN; 
     from R1-12-47-4_node_181; 
     to R1-12-47-4_node_76; 
     current_limit 65; 
     status CLOSED; 
} 

object fuse:838 { 
     name R1-12-47-4_fuse_30; 
     phases ABCN; 
     from R1-12-47-4_node_120; 
     to R1-12-47-4_node_224; 
     current_limit 25; 
     status CLOSED; 
} 

object fuse:839 { 
     name R1-12-47-4_fuse_31; 
     phases ABCN; 
     from R1-12-47-4_node_140; 
     to R1-12-47-4_node_225; 
     current_limit 15; 
     status CLOSED; 
} 

object fuse:840 { 
     name R1-12-47-4_fuse_32; 
     phases ABCN; 
     from R1-12-47-4_node_144; 
     to R1-12-47-4_node_226; 
     current_limit 8; 
     status CLOSED; 
} 

object fuse:841 { 
     name R1-12-47-4_fuse_33; 
     phases ABCN; 
     from R1-12-47-4_node_111; 
     to R1-12-47-4_node_227; 
     current_limit 25; 
     status CLOSED; 
} 

object fuse:842 { 
     name R1-12-47-4_fuse_34; 
     phases ABCN; 
     from R1-12-47-4_node_113; 
     to R1-12-47-4_node_228; 
     current_limit 15; 
     status CLOSED; 
} 

object fuse:843 { 
     name R1-12-47-4_fuse_35; 
     phases ABCN; 
     from R1-12-47-4_node_115; 
     to R1-12-47-4_node_229; 
     current_limit 25; 
     status CLOSED; 
} 

object fuse:844 { 
     name R1-12-47-4_fuse_36; 
     phases ABCN; 
     from R1-12-47-4_node_126; 
     to R1-12-47-4_node_230; 
     current_limit 15; 
     status CLOSED; 
} 

object fuse:845 { 
     name R1-12-47-4_fuse_37; 
     phases ABCN; 
     from R1-12-47-4_node_204; 
     to R1-12-47-4_node_107; 
     current_limit 65; 
     status CLOSED; 
} 

object fuse:846 { 
     name R1-12-47-4_fuse_38; 
     phases ABCN; 
     from R1-12-47-4_node_209; 
     to R1-12-47-4_node_106; 
     current_limit 65; 
     status CLOSED; 
} 

object fuse:847 { 
     name R1-12-47-4_fuse_39; 
     phases ABCN; 
     from R1-12-47-4_node_153; 
     to R1-12-47-4_node_237; 
     current_limit 65; 
     status CLOSED; 
} 

object fuse:848 { 
     name R1-12-47-4_fuse_40; 
     phases ABCN; 
     from R1-12-47-4_node_101; 
     to R1-12-47-4_node_235; 
     current_limit 65; 
     status CLOSED; 
} 

object fuse:849 { 
     name R1-12-47-4_fuse_41; 
     phases ABCN; 
     from R1-12-47-4_node_157; 
     to R1-12-47-4_node_247; 
     current_limit 8; 
     status CLOSED; 
} 

object fuse:850 { 
     name R1-12-47-4_fuse_42; 
     phases ABCN; 
     from R1-12-47-4_node_159; 
     to R1-12-47-4_node_248; 
     current_limit 3; 
     status CLOSED; 
} 

object fuse:851 { 
     name R1-12-47-4_fuse_43; 
     phases ABCN; 
     from R1-12-47-4_node_162; 
     to R1-12-47-4_node_249; 
     current_limit 15; 
     status CLOSED; 
} 

object fuse:852 { 
     name R1-12-47-4_fuse_44; 
     phases ABCN; 
     from R1-12-47-4_node_164; 
     to R1-12-47-4_node_250; 
     current_limit 25; 
     status CLOSED; 
} 

object line_configuration:8 { 
     conductor_A underground_line_conductor:2; 
     conductor_B underground_line_conductor:2; 
     conductor_C underground_line_conductor:2; 
     conductor_N underground_line_conductor:2; 
     spacing line_spacing:5; 
} 

object line_configuration:9 { 
     conductor_A underground_line_conductor:3; 
     conductor_B underground_line_conductor:3; 
     conductor_C underground_line_conductor:3; 
     conductor_N underground_line_conductor:3; 
     spacing line_spacing:5; 
} 

object line_configuration:10 { 
     conductor_A underground_line_conductor:4; 
     conductor_B underground_line_conductor:4; 
     conductor_C underground_line_conductor:4; 
     conductor_N underground_line_conductor:4; 
     spacing line_spacing:5; 
} 

object line_configuration:11 { 
     conductor_A underground_line_conductor:4; 
     conductor_N underground_line_conductor:4; 
     spacing line_spacing:6; 
} 

object line_configuration:12 { 
     conductor_C underground_line_conductor:4; 
     conductor_N underground_line_conductor:4; 
     spacing line_spacing:7; 
} 

object line_configuration:13 { 
     conductor_A underground_line_conductor:3; 
     conductor_N underground_line_conductor:3; 
     spacing line_spacing:6; 
} 

object line_configuration:14 { 
     conductor_C underground_line_conductor:3; 
     conductor_N underground_line_conductor:3; 
     spacing line_spacing:7; 
} 

object line_spacing:5 { 
     distance_AB 52.0 in; 
     distance_BC 52.0 in; 
     distance_AC 52.0 in; 
     distance_AN 72.0 in; 
     distance_BN 72.0 in; 
     distance_CN 72.0 in; 
} 

object line_spacing:6 { 
     distance_AN 72.0 in; 
} 

object line_spacing:7 { 
     distance_CN 72.0 in; 
} 

object load:319 { 
     name R1-12-47-4_load_1; 
     parent R1-12-47-4_meter_1; 
     phases ABCN; 
     voltage_A 7200+0.0j; 
     voltage_B -3600-6235j; 
     voltage_C -3600+6235j; 
     constant_power_A 17027.7904+11009.6057j; 
     constant_power_B 21000.1348+13611.7741j; 
     constant_power_C 17507.4994+11303.4274j; 
     nominal_voltage 7200; 
     load_class C; 
} 

object load:320 { 
     name R1-12-47-4_load_2; 
     parent R1-12-47-4_meter_2; 
     phases ABCN; 
     voltage_A 7200+0.0j; 
     voltage_B -3600-6235j; 
     voltage_C -3600+6235j; 
     constant_power_A 72865.6747+47112.5336j; 
     constant_power_B 89864.2131+58247.7865j; 
     constant_power_C 74918.4551+48369.8614j; 
     nominal_voltage 7200; 
     load_class C; 
} 

object load:321 { 
     name R1-12-47-4_load_3; 
     parent R1-12-47-4_meter_3; 
     phases ABCN; 
     voltage_A 7200+0.0j; 
     voltage_B -3600-6235j; 
     voltage_C -3600+6235j; 
     constant_power_A 49962.928+32304.3756j; 
     constant_power_B 61618.5773+39939.6557j; 
     constant_power_C 51370.4895+33166.5069j; 
     nominal_voltage 7200; 
     load_class C; 
} 

object load:322 { 
     name R1-12-47-4_load_4; 
     parent R1-12-47-4_meter_4; 
     phases ABCN; 
     voltage_A 7200+0.0j; 
     voltage_B -3600-6235j; 
     voltage_C -3600+6235j; 
     constant_power_A 35013.8548+22638.7997j; 
     constant_power_B 43182.0953+27989.5787j; 
     constant_power_C 36000.2693+23242.9784j; 
     nominal_voltage 7200; 
     load_class C; 
} 

object load:323 { 
     name R1-12-47-4_load_5; 
     parent R1-12-47-4_meter_5; 
     phases ABCN; 
     voltage_A 7200+0.0j; 
     voltage_B -3600-6235j; 
     voltage_C -3600+6235j; 
     constant_power_A 28836.6737+18644.8388j; 
     constant_power_B 35563.8646+23051.6278j; 
     constant_power_C 29649.0639+19142.4277j; 
     nominal_voltage 7200; 
     load_class C; 
} 

object load:324 { 
     name R1-12-47-4_load_6; 
     parent R1-12-47-4_meter_6; 
     phases ABCN; 
     voltage_A 7200+0.0j; 
     voltage_B -3600-6235j; 
     voltage_C -3600+6235j; 
     constant_power_A 29787.5763+19259.6609j; 
     constant_power_B 36736.5994+23811.7658j; 
     constant_power_C 30626.7554+19773.6581j; 
     nominal_voltage 7200; 
     load_class C; 
} 

object load:325 { 
     name R1-12-47-4_load_7; 
     parent R1-12-47-4_meter_7; 
     phases ABCN; 
     voltage_A 7200+0.0j; 
     voltage_B -3600-6235j; 
     voltage_C -3600+6235j; 
     constant_power_A 64484.4635+41693.5199j; 
     constant_power_B 79527.7832+51547.9652j; 
     constant_power_C 66301.1275+42806.2264j; 
     nominal_voltage 7200; 
     load_class C; 
} 

object load:326 { 
     name R1-12-47-4_load_8; 
     parent R1-12-47-4_meter_8; 
     phases ABCN; 
     voltage_A 7200+0.0j; 
     voltage_B -3600-6235j; 
     voltage_C -3600+6235j; 
     constant_power_A 24399.1283+15775.6688j; 
     constant_power_B 30091.1022+19504.317j; 
     constant_power_C 25086.5034+16196.686j; 
     nominal_voltage 7200; 
     load_class C; 
} 

object load:327 { 
     name R1-12-47-4_load_9; 
     parent R1-12-47-4_meter_9; 
     phases ABCN; 
     voltage_A 7200+0.0j; 
     voltage_B -3600-6235j; 
     voltage_C -3600+6235j; 
     constant_power_A 52815.6357+34148.842j; 
     constant_power_B 65136.7817+42220.0698j; 
     constant_power_C 54303.5641+35060.198j; 
     nominal_voltage 7200; 
     load_class C; 
} 

object load:328 { 
     name R1-12-47-4_load_10; 
     parent R1-12-47-4_meter_10; 
     phases ABCN; 
     voltage_A 7200+0.0j; 
     voltage_B -3600-6235j; 
     voltage_C -3600+6235j; 
     constant_power_A 39119.69+25293.4968j; 
     constant_power_B 48245.7642+31271.7251j; 
     constant_power_C 40221.7746+25968.5235j; 
     nominal_voltage 7200; 
     load_class C; 
} 

object load:329 { 
     name R1-12-47-4_load_11; 
     parent R1-12-47-4_meter_11; 
     phases ABCN; 
     voltage_A 7200+0.0j; 
     voltage_B -3600-6235j; 
     voltage_C -3600+6235j; 
     constant_power_A 46970.1648+30369.354j; 
     constant_power_B 57927.6445+37547.2833j; 
     constant_power_C 48293.4139+31179.8439j; 
     nominal_voltage 7200; 
     load_class C; 
} 

object load:330 { 
     name R1-12-47-4_load_12; 
     parent R1-12-47-4_meter_12; 
     phases ABCN; 
     voltage_A 7200+0.0j; 
     voltage_B -3600-6235j; 
     voltage_C -3600+6235j; 
     constant_power_A 40129.5633+25946.4474j; 
     constant_power_B 49491.2267+32079.0035j; 
     constant_power_C 41260.0981+26638.8999j; 
     nominal_voltage 7200; 
     load_class C; 
} 

object meter:445 { 
     name R1-12-47-4_meter_1; 
     phases ABCN; 
     voltage_A 7200+0.0j; 
     voltage_B -3600-6235j; 
     voltage_C -3600+6235j; 
     nominal_voltage 7200; 
} 

object meter:446 { 
     name R1-12-47-4_meter_2; 
     phases ABCN; 
     voltage_A 7200+0.0j; 
     voltage_B -3600-6235j; 
     voltage_C -3600+6235j; 
     nominal_voltage 7200; 
} 

object meter:447 { 
     name R1-12-47-4_meter_3; 
     phases ABCN; 
     voltage_A 7200+0.0j; 
     voltage_B -3600-6235j; 
     voltage_C -3600+6235j; 
     nominal_voltage 7200; 
} 

object meter:448 { 
     name R1-12-47-4_meter_4; 
     phases ABCN; 
     voltage_A 7200+0.0j; 
     voltage_B -3600-6235j; 
     voltage_C -3600+6235j; 
     nominal_voltage 7200; 
} 

object meter:449 { 
     name R1-12-47-4_meter_5; 
     phases ABCN; 
     voltage_A 7200+0.0j; 
     voltage_B -3600-6235j; 
     voltage_C -3600+6235j; 
     nominal_voltage 7200; 
} 

object meter:450 { 
     name R1-12-47-4_meter_6; 
     phases ABCN; 
     voltage_A 7200+0.0j; 
     voltage_B -3600-6235j; 
     voltage_C -3600+6235j; 
     nominal_voltage 7200; 
} 

object meter:451 { 
     name R1-12-47-4_meter_7; 
     phases ABCN; 
     voltage_A 7200+0.0j; 
     voltage_B -3600-6235j; 
     voltage_C -3600+6235j; 
     nominal_voltage 7200; 
} 

object meter:452 { 
     name R1-12-47-4_meter_8; 
     phases ABCN; 
     voltage_A 7200+0.0j; 
     voltage_B -3600-6235j; 
     voltage_C -3600+6235j; 
     nominal_voltage 7200; 
} 

object meter:453 { 
     name R1-12-47-4_meter_9; 
     phases ABCN; 
     voltage_A 7200+0.0j; 
     voltage_B -3600-6235j; 
     voltage_C -3600+6235j; 
     nominal_voltage 7200; 
} 

object meter:454 { 
     name R1-12-47-4_meter_10; 
     phases ABCN; 
     voltage_A 7200+0.0j; 
     voltage_B -3600-6235j; 
     voltage_C -3600+6235j; 
     nominal_voltage 7200; 
} 

object meter:455 { 
     name R1-12-47-4_meter_11; 
     phases ABCN; 
     voltage_A 7200+0.0j; 
     voltage_B -3600-6235j; 
     voltage_C -3600+6235j; 
     nominal_voltage 7200; 
} 

object meter:456 { 
     name R1-12-47-4_meter_12; 
     phases ABCN; 
     voltage_A 7200+0.0j; 
     voltage_B -3600-6235j; 
     voltage_C -3600+6235j; 
     nominal_voltage 7200; 
} 

// Meter at feeder 
object meter:875 { 
     name R1-12-47-4_meter_13; 
     phases ABCN; 
     nominal_voltage 7200; 
     voltage_A 7200+0.0j; 
     voltage_B -3600-6235j; 
     voltage_C -3600+6235j; 
} 

object node:15 { 
     name R1-12-47-4_node_1; 
     phases ABCN; 
     voltage_A 7200+0.0j; 
     voltage_B -3600-6235j; 
     voltage_C -3600+6235j; 
     nominal_voltage 7200; 
} 

object node:16 { 
     name R1-12-47-4_node_2; 
     phases ABCN; 
     voltage_A 7200+0.0j; 
     voltage_B -3600-6235j; 
     voltage_C -3600+6235j; 
     nominal_voltage 7200; 
} 

object node:17 { 
     name R1-12-47-4_node_3; 
     phases ABCN; 
     voltage_A 7200+0.0j; 
     voltage_B -3600-6235j; 
     voltage_C -3600+6235j; 
     nominal_voltage 7200; 
} 

object node:18 { 
     name R1-12-47-4_node_4; 
     phases ABCN; 
     voltage_A 7200+0.0j; 
     voltage_B -3600-6235j; 
     voltage_C -3600+6235j; 
     nominal_voltage 7200; 
} 

object node:19 { 
     name R1-12-47-4_node_5; 
     phases ABCN; 
     voltage_A 7200+0.0j; 
     voltage_B -3600-6235j; 
     voltage_C -3600+6235j; 
     nominal_voltage 7200; 
} 

object node:20 { 
     name R1-12-47-4_node_6; 
     phases ABCN; 
     voltage_A 7200+0.0j; 
     voltage_B -3600-6235j; 
     voltage_C -3600+6235j; 
     nominal_voltage 7200; 
} 

object node:21 { 
     name R1-12-47-4_node_7; 
     phases ABCN; 
     voltage_A 7200+0.0j; 
     voltage_B -3600-6235j; 
     voltage_C -3600+6235j; 
     nominal_voltage 7200; 
} 

object node:22 { 
     name R1-12-47-4_node_8; 
     phases ABCN; 
     voltage_A 7200+0.0j; 
     voltage_B -3600-6235j; 
     voltage_C -3600+6235j; 
     nominal_voltage 7200; 
} 

object node:23 { 
     name R1-12-47-4_node_9; 
     phases ABCN; 
     voltage_A 7200+0.0j; 
     voltage_B -3600-6235j; 
     voltage_C -3600+6235j; 
     nominal_voltage 7200; 
} 

object node:24 { 
     name R1-12-47-4_node_10; 
     phases ABCN; 
     voltage_A 7200+0.0j; 
     voltage_B -3600-6235j; 
     voltage_C -3600+6235j; 
     nominal_voltage 7200; 
} 

object node:25 { 
     name R1-12-47-4_node_11; 
     phases ABCN; 
     voltage_A 7200+0.0j; 
     voltage_B -3600-6235j; 
     voltage_C -3600+6235j; 
     nominal_voltage 7200; 
} 

object node:26 { 
     name R1-12-47-4_node_12; 
     phases ABCN; 
     voltage_A 7200+0.0j; 
     voltage_B -3600-6235j; 
     voltage_C -3600+6235j; 
     nominal_voltage 7200; 
} 

object node:27 { 
     name R1-12-47-4_node_13; 
     phases AN; 
     voltage_A 7200+0.0j; 
     nominal_voltage 7200; 
} 

object node:28 { 
     name R1-12-47-4_node_14; 
     phases AN; 
     voltage_A 7200+0.0j; 
     nominal_voltage 7200; 
} 

object node:29 { 
     name R1-12-47-4_node_15; 
     phases AN; 
     voltage_A 7200+0.0j; 
     nominal_voltage 7200; 
} 

object node:30 { 
     name R1-12-47-4_node_16; 
     phases AN; 
     voltage_A 7200+0.0j; 
     nominal_voltage 7200; 
} 

object node:31 { 
     name R1-12-47-4_node_17; 
     phases AN; 
     voltage_A 7200+0.0j; 
     nominal_voltage 7200; 
} 

object node:32 { 
     name R1-12-47-4_node_18; 
     phases AN; 
     voltage_A 7200+0.0j; 
     nominal_voltage 7200; 
} 

object node:33 { 
     name R1-12-47-4_node_19; 
     phases AN; 
     voltage_A 7200+0.0j; 
     nominal_voltage 7200; 
} 

object node:34 { 
     name R1-12-47-4_node_20; 
     phases AN; 
     voltage_A 7200+0.0j; 
     nominal_voltage 7200; 
} 

object node:35 { 
     name R1-12-47-4_node_21; 
     phases AN; 
     voltage_A 7200+0.0j; 
     nominal_voltage 7200; 
} 

object node:36 { 
     name R1-12-47-4_node_22; 
     phases AN; 
     voltage_A 7200+0.0j; 
     nominal_voltage 7200; 
} 

object node:37 { 
     name R1-12-47-4_node_23; 
     phases AN; 
     voltage_A 7200+0.0j; 
     nominal_voltage 7200; 
} 

object node:38 { 
     name R1-12-47-4_node_24; 
     phases AN; 
     voltage_A 7200+0.0j; 
     nominal_voltage 7200; 
} 

object node:39 { 
     name R1-12-47-4_node_25; 
     phases AN; 
     voltage_A 7200+0.0j; 
     nominal_voltage 7200; 
} 

object node:40 { 
     name R1-12-47-4_node_26; 
     phases AN; 
     voltage_A 7200+0.0j; 
     nominal_voltage 7200; 
} 

object node:41 { 
     name R1-12-47-4_node_27; 
     phases AN; 
     voltage_A 7200+0.0j; 
     nominal_voltage 7200; 
} 

object node:42 { 
     name R1-12-47-4_node_28; 
     phases AN; 
     voltage_A 7200+0.0j; 
     nominal_voltage 7200; 
} 

object node:43 { 
     name R1-12-47-4_node_29; 
     phases AN; 
     voltage_A 7200+0.0j; 
     nominal_voltage 7200; 
} 

object node:44 { 
     name R1-12-47-4_node_30; 
     phases ABCN; 
     voltage_A 7200+0.0j; 
     voltage_B -3600-6235j; 
     voltage_C -3600+6235j; 
     nominal_voltage 7200; 
} 

object node:45 { 
     name R1-12-47-4_node_31; 
     phases CN; 
     voltage_C -3600+6235j; 
     nominal_voltage 7200; 
} 

object node:46 { 
     name R1-12-47-4_node_32; 
     phases CN; 
     voltage_C -3600+6235j; 
     nominal_voltage 7200; 
} 

object node:47 { 
     name R1-12-47-4_node_33; 
     phases CN; 
     voltage_C -3600+6235j; 
     nominal_voltage 7200; 
} 

object node:48 { 
     name R1-12-47-4_node_34; 
     phases CN; 
     voltage_C -3600+6235j; 
     nominal_voltage 7200; 
} 

object node:49 { 
     name R1-12-47-4_node_35; 
     phases CN; 
     voltage_C -3600+6235j; 
     nominal_voltage 7200; 
} 

object node:50 { 
     name R1-12-47-4_node_36; 
     phases CN; 
     voltage_C -3600+6235j; 
     nominal_voltage 7200; 
} 

object node:51 { 
     name R1-12-47-4_node_37; 
     phases CN; 
     voltage_C -3600+6235j; 
     nominal_voltage 7200; 
} 

object node:52 { 
     name R1-12-47-4_node_38; 
     phases CN; 
     voltage_C -3600+6235j; 
     nominal_voltage 7200; 
} 

object node:53 { 
     name R1-12-47-4_node_39; 
     phases CN; 
     voltage_C -3600+6235j; 
     nominal_voltage 7200; 
} 

object node:54 { 
     name R1-12-47-4_node_40; 
     phases CN; 
     voltage_C -3600+6235j; 
     nominal_voltage 7200; 
} 

object node:55 { 
     name R1-12-47-4_node_41; 
     phases CN; 
     voltage_C -3600+6235j; 
     nominal_voltage 7200; 
} 

object node:56 { 
     name R1-12-47-4_node_42; 
     phases CN; 
     voltage_C -3600+6235j; 
     nominal_voltage 7200; 
} 

object node:57 { 
     name R1-12-47-4_node_43; 
     phases CN; 
     voltage_C -3600+6235j; 
     nominal_voltage 7200; 
} 

object node:58 { 
     name R1-12-47-4_node_44; 
     phases CN; 
     voltage_C -3600+6235j; 
     nominal_voltage 7200; 
} 

object node:59 { 
     name R1-12-47-4_node_45; 
     phases CN; 
     voltage_C -3600+6235j; 
     nominal_voltage 7200; 
} 

object node:60 { 
     name R1-12-47-4_node_46; 
     phases CN; 
     voltage_C -3600+6235j; 
     nominal_voltage 7200; 
} 

object node:61 { 
     name R1-12-47-4_node_47; 
     phases CN; 
     voltage_C -3600+6235j; 
     nominal_voltage 7200; 
} 

object node:62 { 
     name R1-12-47-4_node_48; 
     phases CN; 
     voltage_C -3600+6235j; 
     nominal_voltage 7200; 
} 

object node:63 { 
     name R1-12-47-4_node_49; 
     phases CN; 
     voltage_C -3600+6235j; 
     nominal_voltage 7200; 
} 

object node:64 { 
     name R1-12-47-4_node_50; 
     phases CN; 
     voltage_C -3600+6235j; 
     nominal_voltage 7200; 
} 

object node:65 { 
     name R1-12-47-4_node_51; 
     phases CN; 
     voltage_C -3600+6235j; 
     nominal_voltage 7200; 
} 

object node:66 { 
     name R1-12-47-4_node_52; 
     phases CN; 
     voltage_C -3600+6235j; 
     nominal_voltage 7200; 
} 

object node:67 { 
     name R1-12-47-4_node_53; 
     phases CN; 
     voltage_C -3600+6235j; 
     nominal_voltage 7200; 
} 

object node:68 { 
     name R1-12-47-4_node_54; 
     phases ABCN; 
     voltage_A 7200+0.0j; 
     voltage_B -3600-6235j; 
     voltage_C -3600+6235j; 
     nominal_voltage 7200; 
} 

object node:69 { 
     name R1-12-47-4_node_55; 
     phases ABCN; 
     voltage_A 7200+0.0j; 
     voltage_B -3600-6235j; 
     voltage_C -3600+6235j; 
     nominal_voltage 7200; 
} 

object node:70 { 
     name R1-12-47-4_node_56; 
     phases ABCN; 
     voltage_A 7200+0.0j; 
     voltage_B -3600-6235j; 
     voltage_C -3600+6235j; 
     nominal_voltage 7200; 
} 

object node:71 { 
     name R1-12-47-4_node_57; 
     phases ABCN; 
     voltage_A 7200+0.0j; 
     voltage_B -3600-6235j; 
     voltage_C -3600+6235j; 
     nominal_voltage 7200; 
} 

object node:72 { 
     name R1-12-47-4_node_58; 
     phases ABCN; 
     voltage_A 7200+0.0j; 
     voltage_B -3600-6235j; 
     voltage_C -3600+6235j; 
     nominal_voltage 7200; 
} 

object node:73 { 
     name R1-12-47-4_node_59; 
     phases ABCN; 
     voltage_A 7200+0.0j; 
     voltage_B -3600-6235j; 
     voltage_C -3600+6235j; 
     nominal_voltage 7200; 
} 

object node:74 { 
     name R1-12-47-4_node_60; 
     phases ABCN; 
     voltage_A 7200+0.0j; 
     voltage_B -3600-6235j; 
     voltage_C -3600+6235j; 
     nominal_voltage 7200; 
} 

object node:75 { 
     name R1-12-47-4_node_61; 
     phases ABCN; 
     voltage_A 7200+0.0j; 
     voltage_B -3600-6235j; 
     voltage_C -3600+6235j; 
     nominal_voltage 7200; 
} 

object node:76 { 
     name R1-12-47-4_node_62; 
     phases ABCN; 
     voltage_A 7200+0.0j; 
     voltage_B -3600-6235j; 
     voltage_C -3600+6235j; 
     nominal_voltage 7200; 
} 

object node:77 { 
     name R1-12-47-4_node_63; 
     phases ABCN; 
     voltage_A 7200+0.0j; 
     voltage_B -3600-6235j; 
     voltage_C -3600+6235j; 
     nominal_voltage 7200; 
} 

object node:78 { 
     name R1-12-47-4_node_64; 
     phases ABCN; 
     voltage_A 7200+0.0j; 
     voltage_B -3600-6235j; 
     voltage_C -3600+6235j; 
     nominal_voltage 7200; 
} 

object node:79 { 
     name R1-12-47-4_node_65; 
     phases ABCN; 
     voltage_A 7200+0.0j; 
     voltage_B -3600-6235j; 
     voltage_C -3600+6235j; 
     nominal_voltage 7200; 
} 

object node:80 { 
     name R1-12-47-4_node_66; 
     phases ABCN; 
     voltage_A 7200+0.0j; 
     voltage_B -3600-6235j; 
     voltage_C -3600+6235j; 
     nominal_voltage 7200; 
} 

object node:81 { 
     name R1-12-47-4_node_67; 
     phases ABCN; 
     voltage_A 7200+0.0j; 
     voltage_B -3600-6235j; 
     voltage_C -3600+6235j; 
     nominal_voltage 7200; 
} 

object node:82 { 
     name R1-12-47-4_node_68; 
     phases ABCN; 
     voltage_A 7200+0.0j; 
     voltage_B -3600-6235j; 
     voltage_C -3600+6235j; 
     nominal_voltage 7200; 
} 

object node:83 { 
     name R1-12-47-4_node_69; 
     phases ABCN; 
     voltage_A 7200+0.0j; 
     voltage_B -3600-6235j; 
     voltage_C -3600+6235j; 
     nominal_voltage 7200; 
} 

object node:84 { 
     name R1-12-47-4_node_70; 
     phases ABCN; 
     voltage_A 7200+0.0j; 
     voltage_B -3600-6235j; 
     voltage_C -3600+6235j; 
     nominal_voltage 7200; 
} 

object node:85 { 
     name R1-12-47-4_node_71; 
     phases ABCN; 
     voltage_A 7200+0.0j; 
     voltage_B -3600-6235j; 
     voltage_C -3600+6235j; 
     nominal_voltage 7200; 
} 

object node:86 { 
     name R1-12-47-4_node_72; 
     phases ABCN; 
     voltage_A 7200+0.0j; 
     voltage_B -3600-6235j; 
     voltage_C -3600+6235j; 
     nominal_voltage 7200; 
} 

object node:87 { 
     name R1-12-47-4_node_73; 
     phases ABCN; 
     voltage_A 7200+0.0j; 
     voltage_B -3600-6235j; 
     voltage_C -3600+6235j; 
     nominal_voltage 7200; 
} 

object node:88 { 
     name R1-12-47-4_node_74; 
     phases ABCN; 
     voltage_A 7200+0.0j; 
     voltage_B -3600-6235j; 
     voltage_C -3600+6235j; 
     nominal_voltage 7200; 
} 

object node:89 { 
     name R1-12-47-4_node_75; 
     phases ABCN; 
     voltage_A 7200+0.0j; 
     voltage_B -3600-6235j; 
     voltage_C -3600+6235j; 
     nominal_voltage 7200; 
} 

object node:90 { 
     name R1-12-47-4_node_76; 
     phases ABCN; 
     voltage_A 7200+0.0j; 
     voltage_B -3600-6235j; 
     voltage_C -3600+6235j; 
     nominal_voltage 7200; 
} 

object node:91 { 
     name R1-12-47-4_node_77; 
     phases ABCN; 
     voltage_A 7200+0.0j; 
     voltage_B -3600-6235j; 
     voltage_C -3600+6235j; 
     nominal_voltage 7200; 
} 

object node:92 { 
     name R1-12-47-4_node_78; 
     phases ABCN; 
     voltage_A 7200+0.0j; 
     voltage_B -3600-6235j; 
     voltage_C -3600+6235j; 
     nominal_voltage 7200; 
} 

object node:93 { 
     name R1-12-47-4_node_79; 
     phases ABCN; 
     voltage_A 7200+0.0j; 
     voltage_B -3600-6235j; 
     voltage_C -3600+6235j; 
     nominal_voltage 7200; 
} 

object node:94 { 
     name R1-12-47-4_node_80; 
     phases ABCN; 
     voltage_A 7200+0.0j; 
     voltage_B -3600-6235j; 
     voltage_C -3600+6235j; 
     nominal_voltage 7200; 
} 

object node:95 { 
     name R1-12-47-4_node_81; 
     phases ABCN; 
     voltage_A 7200+0.0j; 
     voltage_B -3600-6235j; 
     voltage_C -3600+6235j; 
     nominal_voltage 7200; 
} 

object node:96 { 
     name R1-12-47-4_node_82; 
     phases ABCN; 
     voltage_A 7200+0.0j; 
     voltage_B -3600-6235j; 
     voltage_C -3600+6235j; 
     nominal_voltage 7200; 
} 

object node:97 { 
     name R1-12-47-4_node_83; 
     phases ABCN; 
     voltage_A 7200+0.0j; 
     voltage_B -3600-6235j; 
     voltage_C -3600+6235j; 
     nominal_voltage 7200; 
} 

object node:98 { 
     name R1-12-47-4_node_84; 
     phases ABCN; 
     voltage_A 7200+0.0j; 
     voltage_B -3600-6235j; 
     voltage_C -3600+6235j; 
     nominal_voltage 7200; 
} 

object node:99 { 
     name R1-12-47-4_node_85; 
     phases ABCN; 
     voltage_A 7200+0.0j; 
     voltage_B -3600-6235j; 
     voltage_C -3600+6235j; 
     nominal_voltage 7200; 
} 

object node:100 { 
     name R1-12-47-4_node_86; 
     phases ABCN; 
     voltage_A 7200+0.0j; 
     voltage_B -3600-6235j; 
     voltage_C -3600+6235j; 
     nominal_voltage 7200; 
} 

object node:101 { 
     name R1-12-47-4_node_87; 
     phases ABCN; 
     voltage_A 7200+0.0j; 
     voltage_B -3600-6235j; 
     voltage_C -3600+6235j; 
     nominal_voltage 7200; 
} 

object node:102 { 
     name R1-12-47-4_node_88; 
     phases ABCN; 
     voltage_A 7200+0.0j; 
     voltage_B -3600-6235j; 
     voltage_C -3600+6235j; 
     nominal_voltage 7200; 
} 

object node:103 { 
     name R1-12-47-4_node_89; 
     phases ABCN; 
     voltage_A 7200+0.0j; 
     voltage_B -3600-6235j; 
     voltage_C -3600+6235j; 
     nominal_voltage 7200; 
} 

object node:104 { 
     name R1-12-47-4_node_90; 
     phases ABCN; 
     voltage_A 7200+0.0j; 
     voltage_B -3600-6235j; 
     voltage_C -3600+6235j; 
     nominal_voltage 7200; 
} 

object node:105 { 
     name R1-12-47-4_node_91; 
     phases ABCN; 
     voltage_A 7200+0.0j; 
     voltage_B -3600-6235j; 
     voltage_C -3600+6235j; 
     nominal_voltage 7200; 
} 

object node:106 { 
     name R1-12-47-4_node_92; 
     phases ABCN; 
     voltage_A 7200+0.0j; 
     voltage_B -3600-6235j; 
     voltage_C -3600+6235j; 
     nominal_voltage 7200; 
} 

object node:107 { 
     name R1-12-47-4_node_93; 
     phases ABCN; 
     voltage_A 7200+0.0j; 
     voltage_B -3600-6235j; 
     voltage_C -3600+6235j; 
     nominal_voltage 7200; 
} 

object node:108 { 
     name R1-12-47-4_node_94; 
     phases ABCN; 
     voltage_A 7200+0.0j; 
     voltage_B -3600-6235j; 
     voltage_C -3600+6235j; 
     nominal_voltage 7200; 
} 

object node:109 { 
     name R1-12-47-4_node_95; 
     phases ABCN; 
     voltage_A 7200+0.0j; 
     voltage_B -3600-6235j; 
     voltage_C -3600+6235j; 
     nominal_voltage 7200; 
} 

object node:110 { 
     name R1-12-47-4_node_96; 
     phases ABCN; 
     voltage_A 7200+0.0j; 
     voltage_B -3600-6235j; 
     voltage_C -3600+6235j; 
     nominal_voltage 7200; 
} 

object node:111 { 
     name R1-12-47-4_node_97; 
     phases ABCN; 
     voltage_A 7200+0.0j; 
     voltage_B -3600-6235j; 
     voltage_C -3600+6235j; 
     nominal_voltage 7200; 
} 

object node:112 { 
     name R1-12-47-4_node_98; 
     phases ABCN; 
     voltage_A 7200+0.0j; 
     voltage_B -3600-6235j; 
     voltage_C -3600+6235j; 
     nominal_voltage 7200; 
} 

object node:113 { 
     name R1-12-47-4_node_99; 
     phases ABCN; 
     voltage_A 7200+0.0j; 
     voltage_B -3600-6235j; 
     voltage_C -3600+6235j; 
     nominal_voltage 7200; 
} 

object node:114 { 
     name R1-12-47-4_node_100; 
     phases ABCN; 
     voltage_A 7200+0.0j; 
     voltage_B -3600-6235j; 
     voltage_C -3600+6235j; 
     nominal_voltage 7200; 
} 

object node:115 { 
     name R1-12-47-4_node_101; 
     phases ABCN; 
     voltage_A 7200+0.0j; 
     voltage_B -3600-6235j; 
     voltage_C -3600+6235j; 
     nominal_voltage 7200; 
} 

object node:116 { 
     name R1-12-47-4_node_102; 
     phases ABCN; 
     voltage_A 7200+0.0j; 
     voltage_B -3600-6235j; 
     voltage_C -3600+6235j; 
     nominal_voltage 7200; 
} 

object node:117 { 
     name R1-12-47-4_node_103; 
     phases ABCN; 
     voltage_A 7200+0.0j; 
     voltage_B -3600-6235j; 
     voltage_C -3600+6235j; 
     nominal_voltage 7200; 
} 

object node:118 { 
     name R1-12-47-4_node_104; 
     phases ABCN; 
     voltage_A 7200+0.0j; 
     voltage_B -3600-6235j; 
     voltage_C -3600+6235j; 
     nominal_voltage 7200; 
} 

object node:119 { 
     name R1-12-47-4_node_105; 
     phases ABCN; 
     voltage_A 7200+0.0j; 
     voltage_B -3600-6235j; 
     voltage_C -3600+6235j; 
     nominal_voltage 7200; 
} 

object node:120 { 
     name R1-12-47-4_node_106; 
     phases ABCN; 
     voltage_A 7200+0.0j; 
     voltage_B -3600-6235j; 
     voltage_C -3600+6235j; 
     nominal_voltage 7200; 
} 

object node:121 { 
     name R1-12-47-4_node_107; 
     phases ABCN; 
     voltage_A 7200+0.0j; 
     voltage_B -3600-6235j; 
     voltage_C -3600+6235j; 
     nominal_voltage 7200; 
} 

object node:122 { 
     name R1-12-47-4_node_108; 
     phases ABCN; 
     voltage_A 7200+0.0j; 
     voltage_B -3600-6235j; 
     voltage_C -3600+6235j; 
     nominal_voltage 7200; 
} 

object node:123 { 
     name R1-12-47-4_node_109; 
     phases ABCN; 
     voltage_A 7200+0.0j; 
     voltage_B -3600-6235j; 
     voltage_C -3600+6235j; 
     nominal_voltage 7200; 
} 

object node:124 { 
     name R1-12-47-4_node_110; 
     phases ABCN; 
     voltage_A 7200+0.0j; 
     voltage_B -3600-6235j; 
     voltage_C -3600+6235j; 
     nominal_voltage 7200; 
} 

object node:125 { 
     name R1-12-47-4_node_111; 
     phases ABCN; 
     voltage_A 7200+0.0j; 
     voltage_B -3600-6235j; 
     voltage_C -3600+6235j; 
     nominal_voltage 7200; 
} 

object node:126 { 
     name R1-12-47-4_node_112; 
     phases ABCN; 
     voltage_A 7200+0.0j; 
     voltage_B -3600-6235j; 
     voltage_C -3600+6235j; 
     nominal_voltage 7200; 
} 

object node:127 { 
     name R1-12-47-4_node_113; 
     phases ABCN; 
     voltage_A 7200+0.0j; 
     voltage_B -3600-6235j; 
     voltage_C -3600+6235j; 
     nominal_voltage 7200; 
} 

object node:128 { 
     name R1-12-47-4_node_114; 
     phases ABCN; 
     voltage_A 7200+0.0j; 
     voltage_B -3600-6235j; 
     voltage_C -3600+6235j; 
     nominal_voltage 7200; 
} 

object node:129 { 
     name R1-12-47-4_node_115; 
     phases ABCN; 
     voltage_A 7200+0.0j; 
     voltage_B -3600-6235j; 
     voltage_C -3600+6235j; 
     nominal_voltage 7200; 
} 

object node:130 { 
     name R1-12-47-4_node_116; 
     phases ABCN; 
     voltage_A 7200+0.0j; 
     voltage_B -3600-6235j; 
     voltage_C -3600+6235j; 
     nominal_voltage 7200; 
} 

object node:131 { 
     name R1-12-47-4_node_117; 
     phases ABCN; 
     voltage_A 7200+0.0j; 
     voltage_B -3600-6235j; 
     voltage_C -3600+6235j; 
     nominal_voltage 7200; 
} 

object node:132 { 
     name R1-12-47-4_node_118; 
     phases ABCN; 
     voltage_A 7200+0.0j; 
     voltage_B -3600-6235j; 
     voltage_C -3600+6235j; 
     nominal_voltage 7200; 
} 

object node:133 { 
     name R1-12-47-4_node_119; 
     phases ABCN; 
     voltage_A 7200+0.0j; 
     voltage_B -3600-6235j; 
     voltage_C -3600+6235j; 
     nominal_voltage 7200; 
} 

object node:134 { 
     name R1-12-47-4_node_120; 
     phases ABCN; 
     voltage_A 7200+0.0j; 
     voltage_B -3600-6235j; 
     voltage_C -3600+6235j; 
     nominal_voltage 7200; 
} 

object node:135 { 
     name R1-12-47-4_node_121; 
     phases ABCN; 
     voltage_A 7200+0.0j; 
     voltage_B -3600-6235j; 
     voltage_C -3600+6235j; 
     nominal_voltage 7200; 
} 

object node:136 { 
     name R1-12-47-4_node_122; 
     phases ABCN; 
     voltage_A 7200+0.0j; 
     voltage_B -3600-6235j; 
     voltage_C -3600+6235j; 
     nominal_voltage 7200; 
} 

object node:137 { 
     name R1-12-47-4_node_123; 
     phases ABCN; 
     voltage_A 7200+0.0j; 
     voltage_B -3600-6235j; 
     voltage_C -3600+6235j; 
     nominal_voltage 7200; 
} 

object node:138 { 
     name R1-12-47-4_node_124; 
     phases ABCN; 
     voltage_A 7200+0.0j; 
     voltage_B -3600-6235j; 
     voltage_C -3600+6235j; 
     nominal_voltage 7200; 
} 

object node:139 { 
     name R1-12-47-4_node_125; 
     phases ABCN; 
     voltage_A 7200+0.0j; 
     voltage_B -3600-6235j; 
     voltage_C -3600+6235j; 
     nominal_voltage 7200; 
} 

object node:140 { 
     name R1-12-47-4_node_126; 
     phases ABCN; 
     voltage_A 7200+0.0j; 
     voltage_B -3600-6235j; 
     voltage_C -3600+6235j; 
     nominal_voltage 7200; 
} 

object node:141 { 
     name R1-12-47-4_node_127; 
     phases ABCN; 
     voltage_A 7200+0.0j; 
     voltage_B -3600-6235j; 
     voltage_C -3600+6235j; 
     nominal_voltage 7200; 
} 

object node:142 { 
     name R1-12-47-4_node_128; 
     phases ABCN; 
     voltage_A 7200+0.0j; 
     voltage_B -3600-6235j; 
     voltage_C -3600+6235j; 
     nominal_voltage 7200; 
} 

object node:143 { 
     name R1-12-47-4_node_129; 
     phases ABCN; 
     voltage_A 7200+0.0j; 
     voltage_B -3600-6235j; 
     voltage_C -3600+6235j; 
     nominal_voltage 7200; 
} 

object node:144 { 
     name R1-12-47-4_node_130; 
     phases ABCN; 
     voltage_A 7200+0.0j; 
     voltage_B -3600-6235j; 
     voltage_C -3600+6235j; 
     nominal_voltage 7200; 
} 

object node:145 { 
     name R1-12-47-4_node_131; 
     phases ABCN; 
     voltage_A 7200+0.0j; 
     voltage_B -3600-6235j; 
     voltage_C -3600+6235j; 
     nominal_voltage 7200; 
} 

object node:146 { 
     name R1-12-47-4_node_132; 
     phases ABCN; 
     voltage_A 7200+0.0j; 
     voltage_B -3600-6235j; 
     voltage_C -3600+6235j; 
     nominal_voltage 7200; 
} 

object node:147 { 
     name R1-12-47-4_node_133; 
     phases ABCN; 
     voltage_A 7200+0.0j; 
     voltage_B -3600-6235j; 
     voltage_C -3600+6235j; 
     nominal_voltage 7200; 
} 

object node:148 { 
     name R1-12-47-4_node_134; 
     phases ABCN; 
     voltage_A 7200+0.0j; 
     voltage_B -3600-6235j; 
     voltage_C -3600+6235j; 
     nominal_voltage 7200; 
} 

object node:149 { 
     name R1-12-47-4_node_135; 
     phases ABCN; 
     voltage_A 7200+0.0j; 
     voltage_B -3600-6235j; 
     voltage_C -3600+6235j; 
     nominal_voltage 7200; 
} 

object node:150 { 
     name R1-12-47-4_node_136; 
     phases ABCN; 
     voltage_A 7200+0.0j; 
     voltage_B -3600-6235j; 
     voltage_C -3600+6235j; 
     nominal_voltage 7200; 
} 

object node:151 { 
     name R1-12-47-4_node_137; 
     phases ABCN; 
     voltage_A 7200+0.0j; 
     voltage_B -3600-6235j; 
     voltage_C -3600+6235j; 
     nominal_voltage 7200; 
} 

object node:152 { 
     name R1-12-47-4_node_138; 
     phases ABCN; 
     voltage_A 7200+0.0j; 
     voltage_B -3600-6235j; 
     voltage_C -3600+6235j; 
     nominal_voltage 7200; 
} 

object node:153 { 
     name R1-12-47-4_node_139; 
     phases ABCN; 
     voltage_A 7200+0.0j; 
     voltage_B -3600-6235j; 
     voltage_C -3600+6235j; 
     nominal_voltage 7200; 
} 

object node:154 { 
     name R1-12-47-4_node_140; 
     phases ABCN; 
     voltage_A 7200+0.0j; 
     voltage_B -3600-6235j; 
     voltage_C -3600+6235j; 
     nominal_voltage 7200; 
} 

object node:155 { 
     name R1-12-47-4_node_141; 
     phases ABCN; 
     voltage_A 7200+0.0j; 
     voltage_B -3600-6235j; 
     voltage_C -3600+6235j; 
     nominal_voltage 7200; 
} 

object node:156 { 
     name R1-12-47-4_node_142; 
     phases ABCN; 
     voltage_A 7200+0.0j; 
     voltage_B -3600-6235j; 
     voltage_C -3600+6235j; 
     nominal_voltage 7200; 
} 

object node:157 { 
     name R1-12-47-4_node_143; 
     phases ABCN; 
     voltage_A 7200+0.0j; 
     voltage_B -3600-6235j; 
     voltage_C -3600+6235j; 
     nominal_voltage 7200; 
} 

object node:158 { 
     name R1-12-47-4_node_144; 
     phases ABCN; 
     voltage_A 7200+0.0j; 
     voltage_B -3600-6235j; 
     voltage_C -3600+6235j; 
     nominal_voltage 7200; 
} 

object node:159 { 
     name R1-12-47-4_node_145; 
     phases ABCN; 
     voltage_A 7200+0.0j; 
     voltage_B -3600-6235j; 
     voltage_C -3600+6235j; 
     nominal_voltage 7200; 
} 

object node:160 { 
     name R1-12-47-4_node_146; 
     phases ABCN; 
     voltage_A 7200+0.0j; 
     voltage_B -3600-6235j; 
     voltage_C -3600+6235j; 
     nominal_voltage 7200; 
} 

object node:161 { 
     name R1-12-47-4_node_147; 
     phases ABCN; 
     voltage_A 7200+0.0j; 
     voltage_B -3600-6235j; 
     voltage_C -3600+6235j; 
     nominal_voltage 7200; 
} 

object node:162 { 
     name R1-12-47-4_node_148; 
     phases ABCN; 
     voltage_A 7200+0.0j; 
     voltage_B -3600-6235j; 
     voltage_C -3600+6235j; 
     nominal_voltage 7200; 
} 

object node:163 { 
     name R1-12-47-4_node_149; 
     phases ABCN; 
     voltage_A 7200+0.0j; 
     voltage_B -3600-6235j; 
     voltage_C -3600+6235j; 
     nominal_voltage 7200; 
} 

object node:164 { 
     name R1-12-47-4_node_150; 
     phases ABCN; 
     voltage_A 7200+0.0j; 
     voltage_B -3600-6235j; 
     voltage_C -3600+6235j; 
     nominal_voltage 7200; 
} 

object node:165 { 
     name R1-12-47-4_node_151; 
     phases ABCN; 
     voltage_A 7200+0.0j; 
     voltage_B -3600-6235j; 
     voltage_C -3600+6235j; 
     nominal_voltage 7200; 
} 

object node:166 { 
     name R1-12-47-4_node_152; 
     phases ABCN; 
     voltage_A 7200+0.0j; 
     voltage_B -3600-6235j; 
     voltage_C -3600+6235j; 
     nominal_voltage 7200; 
} 

object node:167 { 
     name R1-12-47-4_node_153; 
     phases ABCN; 
     voltage_A 7200+0.0j; 
     voltage_B -3600-6235j; 
     voltage_C -3600+6235j; 
     nominal_voltage 7200; 
} 

object node:168 { 
     name R1-12-47-4_node_154; 
     phases ABCN; 
     voltage_A 7200+0.0j; 
     voltage_B -3600-6235j; 
     voltage_C -3600+6235j; 
     nominal_voltage 7200; 
} 

object node:169 { 
     name R1-12-47-4_node_155; 
     phases ABCN; 
     voltage_A 7200+0.0j; 
     voltage_B -3600-6235j; 
     voltage_C -3600+6235j; 
     nominal_voltage 7200; 
} 

object node:170 { 
     name R1-12-47-4_node_156; 
     phases ABCN; 
     voltage_A 7200+0.0j; 
     voltage_B -3600-6235j; 
     voltage_C -3600+6235j; 
     nominal_voltage 7200; 
} 

object node:171 { 
     name R1-12-47-4_node_157; 
     phases ABCN; 
     voltage_A 7200+0.0j; 
     voltage_B -3600-6235j; 
     voltage_C -3600+6235j; 
     nominal_voltage 7200; 
} 

object node:172 { 
     name R1-12-47-4_node_158; 
     phases ABCN; 
     voltage_A 7200+0.0j; 
     voltage_B -3600-6235j; 
     voltage_C -3600+6235j; 
     nominal_voltage 7200; 
} 

object node:173 { 
     name R1-12-47-4_node_159; 
     phases ABCN; 
     voltage_A 7200+0.0j; 
     voltage_B -3600-6235j; 
     voltage_C -3600+6235j; 
     nominal_voltage 7200; 
} 

object node:174 { 
     name R1-12-47-4_node_160; 
     phases ABCN; 
     voltage_A 7200+0.0j; 
     voltage_B -3600-6235j; 
     voltage_C -3600+6235j; 
     nominal_voltage 7200; 
} 

object node:175 { 
     name R1-12-47-4_node_161; 
     phases ABCN; 
     voltage_A 7200+0.0j; 
     voltage_B -3600-6235j; 
     voltage_C -3600+6235j; 
     nominal_voltage 7200; 
} 

object node:176 { 
     name R1-12-47-4_node_162; 
     phases ABCN; 
     voltage_A 7200+0.0j; 
     voltage_B -3600-6235j; 
     voltage_C -3600+6235j; 
     nominal_voltage 7200; 
} 

object node:177 { 
     name R1-12-47-4_node_163; 
     phases ABCN; 
     voltage_A 7200+0.0j; 
     voltage_B -3600-6235j; 
     voltage_C -3600+6235j; 
     nominal_voltage 7200; 
} 

object node:178 { 
     name R1-12-47-4_node_164; 
     phases ABCN; 
     voltage_A 7200+0.0j; 
     voltage_B -3600-6235j; 
     voltage_C -3600+6235j; 
     nominal_voltage 7200; 
} 

object node:179 { 
     name R1-12-47-4_node_165; 
     phases ABCN; 
     voltage_A 7200+0.0j; 
     voltage_B -3600-6235j; 
     voltage_C -3600+6235j; 
     nominal_voltage 7200; 
} 

object node:180 { 
     name R1-12-47-4_node_166; 
     phases ABCN; 
     voltage_A 7200+0.0j; 
     voltage_B -3600-6235j; 
     voltage_C -3600+6235j; 
     nominal_voltage 7200; 
} 

object node:181 { 
     name R1-12-47-4_node_167; 
     phases ABCN; 
     voltage_A 7200+0.0j; 
     voltage_B -3600-6235j; 
     voltage_C -3600+6235j; 
     nominal_voltage 7200; 
} 

object node:182 { 
     name R1-12-47-4_node_168; 
     phases ABCN; 
     voltage_A 7200+0.0j; 
     voltage_B -3600-6235j; 
     voltage_C -3600+6235j; 
     nominal_voltage 7200; 
} 

object node:183 { 
     name R1-12-47-4_node_169; 
     phases ABCN; 
     voltage_A 7200+0.0j; 
     voltage_B -3600-6235j; 
     voltage_C -3600+6235j; 
     nominal_voltage 7200; 
} 

object node:184 { 
     name R1-12-47-4_node_170; 
     phases ABCN; 
     voltage_A 7200+0.0j; 
     voltage_B -3600-6235j; 
     voltage_C -3600+6235j; 
     nominal_voltage 7200; 
} 

object node:185 { 
     name R1-12-47-4_node_171; 
     phases ABCN; 
     voltage_A 7200+0.0j; 
     voltage_B -3600-6235j; 
     voltage_C -3600+6235j; 
     nominal_voltage 7200; 
} 

object node:186 { 
     name R1-12-47-4_node_172; 
     phases ABCN; 
     voltage_A 7200+0.0j; 
     voltage_B -3600-6235j; 
     voltage_C -3600+6235j; 
     nominal_voltage 7200; 
} 

object node:187 { 
     name R1-12-47-4_node_173; 
     phases ABCN; 
     voltage_A 7200+0.0j; 
     voltage_B -3600-6235j; 
     voltage_C -3600+6235j; 
     nominal_voltage 7200; 
} 

object node:188 { 
     name R1-12-47-4_node_174; 
     phases ABCN; 
     voltage_A 7200+0.0j; 
     voltage_B -3600-6235j; 
     voltage_C -3600+6235j; 
     nominal_voltage 7200; 
} 

object node:189 { 
     name R1-12-47-4_node_175; 
     phases ABCN; 
     voltage_A 7200+0.0j; 
     voltage_B -3600-6235j; 
     voltage_C -3600+6235j; 
     nominal_voltage 7200; 
} 

object node:190 { 
     name R1-12-47-4_node_176; 
     phases ABCN; 
     voltage_A 7200+0.0j; 
     voltage_B -3600-6235j; 
     voltage_C -3600+6235j; 
     nominal_voltage 7200; 
} 

object node:191 { 
     name R1-12-47-4_node_177; 
     phases ABCN; 
     voltage_A 7200+0.0j; 
     voltage_B -3600-6235j; 
     voltage_C -3600+6235j; 
     nominal_voltage 7200; 
} 

object node:192 { 
     name R1-12-47-4_node_178; 
     phases ABCN; 
     voltage_A 7200+0.0j; 
     voltage_B -3600-6235j; 
     voltage_C -3600+6235j; 
     nominal_voltage 7200; 
} 

object node:193 { 
     name R1-12-47-4_node_179; 
     phases ABCN; 
     voltage_A 7200+0.0j; 
     voltage_B -3600-6235j; 
     voltage_C -3600+6235j; 
     nominal_voltage 7200; 
} 

object node:194 { 
     name R1-12-47-4_node_180; 
     phases ABCN; 
     voltage_A 7200+0.0j; 
     voltage_B -3600-6235j; 
     voltage_C -3600+6235j; 
     nominal_voltage 7200; 
} 

object node:195 { 
     name R1-12-47-4_node_181; 
     phases ABCN; 
     voltage_A 7200+0.0j; 
     voltage_B -3600-6235j; 
     voltage_C -3600+6235j; 
     nominal_voltage 7200; 
} 

object node:196 { 
     name R1-12-47-4_node_182; 
     phases ABCN; 
     voltage_A 7200+0.0j; 
     voltage_B -3600-6235j; 
     voltage_C -3600+6235j; 
     nominal_voltage 7200; 
} 

object node:197 { 
     name R1-12-47-4_node_183; 
     phases ABCN; 
     voltage_A 7200+0.0j; 
     voltage_B -3600-6235j; 
     voltage_C -3600+6235j; 
     nominal_voltage 7200; 
} 

object node:198 { 
     name R1-12-47-4_node_184; 
     phases ABCN; 
     voltage_A 7200+0.0j; 
     voltage_B -3600-6235j; 
     voltage_C -3600+6235j; 
     nominal_voltage 7200; 
} 

object node:199 { 
     name R1-12-47-4_node_185; 
     phases ABCN; 
     voltage_A 7200+0.0j; 
     voltage_B -3600-6235j; 
     voltage_C -3600+6235j; 
     nominal_voltage 7200; 
} 

object node:200 { 
     name R1-12-47-4_node_186; 
     phases ABCN; 
     voltage_A 7200+0.0j; 
     voltage_B -3600-6235j; 
     voltage_C -3600+6235j; 
     nominal_voltage 7200; 
} 

object node:201 { 
     name R1-12-47-4_node_187; 
     phases ABCN; 
     voltage_A 7200+0.0j; 
     voltage_B -3600-6235j; 
     voltage_C -3600+6235j; 
     nominal_voltage 7200; 
} 

object node:202 { 
     name R1-12-47-4_node_188; 
     phases ABCN; 
     voltage_A 7200+0.0j; 
     voltage_B -3600-6235j; 
     voltage_C -3600+6235j; 
     nominal_voltage 7200; 
} 

object node:203 { 
     name R1-12-47-4_node_189; 
     phases ABCN; 
     voltage_A 7200+0.0j; 
     voltage_B -3600-6235j; 
     voltage_C -3600+6235j; 
     nominal_voltage 7200; 
} 

object node:204 { 
     name R1-12-47-4_node_190; 
     phases ABCN; 
     voltage_A 7200+0.0j; 
     voltage_B -3600-6235j; 
     voltage_C -3600+6235j; 
     nominal_voltage 7200; 
} 

object node:205 { 
     name R1-12-47-4_node_191; 
     phases ABCN; 
     voltage_A 7200+0.0j; 
     voltage_B -3600-6235j; 
     voltage_C -3600+6235j; 
     nominal_voltage 7200; 
} 

object node:206 { 
     name R1-12-47-4_node_192; 
     phases ABCN; 
     voltage_A 7200+0.0j; 
     voltage_B -3600-6235j; 
     voltage_C -3600+6235j; 
     nominal_voltage 7200; 
} 

object node:207 { 
     name R1-12-47-4_node_193; 
     phases ABCN; 
     voltage_A 7200+0.0j; 
     voltage_B -3600-6235j; 
     voltage_C -3600+6235j; 
     nominal_voltage 7200; 
} 

object node:208 { 
     name R1-12-47-4_node_194; 
     phases ABCN; 
     voltage_A 7200+0.0j; 
     voltage_B -3600-6235j; 
     voltage_C -3600+6235j; 
     nominal_voltage 7200; 
} 

object node:209 { 
     name R1-12-47-4_node_195; 
     phases ABCN; 
     voltage_A 7200+0.0j; 
     voltage_B -3600-6235j; 
     voltage_C -3600+6235j; 
     nominal_voltage 7200; 
} 

object node:210 { 
     name R1-12-47-4_node_196; 
     phases ABCN; 
     voltage_A 7200+0.0j; 
     voltage_B -3600-6235j; 
     voltage_C -3600+6235j; 
     nominal_voltage 7200; 
} 

object node:211 { 
     name R1-12-47-4_node_197; 
     phases ABCN; 
     voltage_A 7200+0.0j; 
     voltage_B -3600-6235j; 
     voltage_C -3600+6235j; 
     nominal_voltage 7200; 
} 

object node:212 { 
     name R1-12-47-4_node_198; 
     phases ABCN; 
     voltage_A 7200+0.0j; 
     voltage_B -3600-6235j; 
     voltage_C -3600+6235j; 
     nominal_voltage 7200; 
} 

object node:213 { 
     name R1-12-47-4_node_199; 
     phases ABCN; 
     voltage_A 7200+0.0j; 
     voltage_B -3600-6235j; 
     voltage_C -3600+6235j; 
     nominal_voltage 7200; 
} 

object node:214 { 
     name R1-12-47-4_node_200; 
     phases ABCN; 
     voltage_A 7200+0.0j; 
     voltage_B -3600-6235j; 
     voltage_C -3600+6235j; 
     nominal_voltage 7200; 
} 

object node:215 { 
     name R1-12-47-4_node_201; 
     phases ABCN; 
     voltage_A 7200+0.0j; 
     voltage_B -3600-6235j; 
     voltage_C -3600+6235j; 
     nominal_voltage 7200; 
} 

object node:216 { 
     name R1-12-47-4_node_202; 
     phases ABCN; 
     voltage_A 7200+0.0j; 
     voltage_B -3600-6235j; 
     voltage_C -3600+6235j; 
     nominal_voltage 7200; 
} 

object node:217 { 
     name R1-12-47-4_node_203; 
     phases ABCN; 
     voltage_A 7200+0.0j; 
     voltage_B -3600-6235j; 
     voltage_C -3600+6235j; 
     nominal_voltage 7200; 
} 

object node:218 { 
     name R1-12-47-4_node_204; 
     phases ABCN; 
     voltage_A 7200+0.0j; 
     voltage_B -3600-6235j; 
     voltage_C -3600+6235j; 
     nominal_voltage 7200; 
} 

object node:219 { 
     name R1-12-47-4_node_205; 
     phases ABCN; 
     voltage_A 7200+0.0j; 
     voltage_B -3600-6235j; 
     voltage_C -3600+6235j; 
     nominal_voltage 7200; 
} 

object node:220 { 
     name R1-12-47-4_node_206; 
     phases ABCN; 
     voltage_A 7200+0.0j; 
     voltage_B -3600-6235j; 
     voltage_C -3600+6235j; 
     nominal_voltage 7200; 
} 

object node:221 { 
     name R1-12-47-4_node_207; 
     phases ABCN; 
     voltage_A 7200+0.0j; 
     voltage_B -3600-6235j; 
     voltage_C -3600+6235j; 
     nominal_voltage 7200; 
} 

object node:222 { 
     name R1-12-47-4_node_208; 
     phases ABCN; 
     voltage_A 7200+0.0j; 
     voltage_B -3600-6235j; 
     voltage_C -3600+6235j; 
     nominal_voltage 7200; 
} 

object node:223 { 
     name R1-12-47-4_node_209; 
     phases ABCN; 
     voltage_A 7200+0.0j; 
     voltage_B -3600-6235j; 
     voltage_C -3600+6235j; 
     nominal_voltage 7200; 
} 

object node:224 { 
     name R1-12-47-4_node_210; 
     phases ABCN; 
     voltage_A 7200+0.0j; 
     voltage_B -3600-6235j; 
     voltage_C -3600+6235j; 
     nominal_voltage 7200; 
} 

object node:225 { 
     name R1-12-47-4_node_211; 
     phases ABCN; 
     voltage_A 7200+0.0j; 
     voltage_B -3600-6235j; 
     voltage_C -3600+6235j; 
     nominal_voltage 7200; 
} 

object node:226 { 
     name R1-12-47-4_node_212; 
     phases ABCN; 
     voltage_A 7200+0.0j; 
     voltage_B -3600-6235j; 
     voltage_C -3600+6235j; 
     nominal_voltage 7200; 
} 

object node:227 { 
     name R1-12-47-4_node_213; 
     phases ABCN; 
     voltage_A 7200+0.0j; 
     voltage_B -3600-6235j; 
     voltage_C -3600+6235j; 
     nominal_voltage 7200; 
} 

object node:228 { 
     name R1-12-47-4_node_214; 
     phases ABCN; 
     voltage_A 7200+0.0j; 
     voltage_B -3600-6235j; 
     voltage_C -3600+6235j; 
     nominal_voltage 7200; 
} 

object node:229 { 
     name R1-12-47-4_node_215; 
     phases ABCN; 
     voltage_A 7200+0.0j; 
     voltage_B -3600-6235j; 
     voltage_C -3600+6235j; 
     nominal_voltage 7200; 
} 

object node:230 { 
     name R1-12-47-4_node_216; 
     phases ABCN; 
     voltage_A 7200+0.0j; 
     voltage_B -3600-6235j; 
     voltage_C -3600+6235j; 
     nominal_voltage 7200; 
} 

object node:231 { 
     name R1-12-47-4_node_217; 
     phases ABCN; 
     voltage_A 7200+0.0j; 
     voltage_B -3600-6235j; 
     voltage_C -3600+6235j; 
     nominal_voltage 7200; 
} 

object node:232 { 
     name R1-12-47-4_node_218; 
     phases ABCN; 
     voltage_A 7200+0.0j; 
     voltage_B -3600-6235j; 
     voltage_C -3600+6235j; 
     nominal_voltage 7200; 
} 

object node:233 { 
     name R1-12-47-4_node_219; 
     phases ABCN; 
     voltage_A 7200+0.0j; 
     voltage_B -3600-6235j; 
     voltage_C -3600+6235j; 
     nominal_voltage 7200; 
} 

object node:234 { 
     name R1-12-47-4_node_220; 
     phases ABCN; 
     voltage_A 7200+0.0j; 
     voltage_B -3600-6235j; 
     voltage_C -3600+6235j; 
     nominal_voltage 7200; 
} 

object node:235 { 
     name R1-12-47-4_node_221; 
     phases ABCN; 
     voltage_A 7200+0.0j; 
     voltage_B -3600-6235j; 
     voltage_C -3600+6235j; 
     nominal_voltage 7200; 
} 

object node:236 { 
     name R1-12-47-4_node_222; 
     phases ABCN; 
     voltage_A 7200+0.0j; 
     voltage_B -3600-6235j; 
     voltage_C -3600+6235j; 
     nominal_voltage 7200; 
} 

object node:237 { 
     name R1-12-47-4_node_223; 
     phases ABCN; 
     voltage_A 7200+0.0j; 
     voltage_B -3600-6235j; 
     voltage_C -3600+6235j; 
     nominal_voltage 7200; 
} 

object node:238 { 
     name R1-12-47-4_node_224; 
     phases ABCN; 
     voltage_A 7200+0.0j; 
     voltage_B -3600-6235j; 
     voltage_C -3600+6235j; 
     nominal_voltage 7200; 
} 

object node:239 { 
     name R1-12-47-4_node_225; 
     phases ABCN; 
     voltage_A 7200+0.0j; 
     voltage_B -3600-6235j; 
     voltage_C -3600+6235j; 
     nominal_voltage 7200; 
} 

object node:240 { 
     name R1-12-47-4_node_226; 
     phases ABCN; 
     voltage_A 7200+0.0j; 
     voltage_B -3600-6235j; 
     voltage_C -3600+6235j; 
     nominal_voltage 7200; 
} 

object node:241 { 
     name R1-12-47-4_node_227; 
     phases ABCN; 
     voltage_A 7200+0.0j; 
     voltage_B -3600-6235j; 
     voltage_C -3600+6235j; 
     nominal_voltage 7200; 
} 

object node:242 { 
     name R1-12-47-4_node_228; 
     phases ABCN; 
     voltage_A 7200+0.0j; 
     voltage_B -3600-6235j; 
     voltage_C -3600+6235j; 
     nominal_voltage 7200; 
} 

object node:243 { 
     name R1-12-47-4_node_229; 
     phases ABCN; 
     voltage_A 7200+0.0j; 
     voltage_B -3600-6235j; 
     voltage_C -3600+6235j; 
     nominal_voltage 7200; 
} 

object node:244 { 
     name R1-12-47-4_node_230; 
     phases ABCN; 
     voltage_A 7200+0.0j; 
     voltage_B -3600-6235j; 
     voltage_C -3600+6235j; 
     nominal_voltage 7200; 
} 

object node:245 { 
     name R1-12-47-4_node_231; 
     phases ABCN; 
     voltage_A 7200+0.0j; 
     voltage_B -3600-6235j; 
     voltage_C -3600+6235j; 
     nominal_voltage 7200; 
} 

object node:246 { 
     name R1-12-47-4_node_232; 
     phases ABCN; 
     voltage_A 7200+0.0j; 
     voltage_B -3600-6235j; 
     voltage_C -3600+6235j; 
     nominal_voltage 7200; 
} 

object node:247 { 
     name R1-12-47-4_node_233; 
     phases ABCN; 
     voltage_A 7200+0.0j; 
     voltage_B -3600-6235j; 
     voltage_C -3600+6235j; 
     nominal_voltage 7200; 
} 

object node:248 { 
     name R1-12-47-4_node_234; 
     phases ABCN; 
     voltage_A 7200+0.0j; 
     voltage_B -3600-6235j; 
     voltage_C -3600+6235j; 
     nominal_voltage 7200; 
} 

object node:249 { 
     name R1-12-47-4_node_235; 
     phases ABCN; 
     voltage_A 7200+0.0j; 
     voltage_B -3600-6235j; 
     voltage_C -3600+6235j; 
     nominal_voltage 7200; 
} 

object node:250 { 
     name R1-12-47-4_node_236; 
     phases ABCN; 
     voltage_A 7200+0.0j; 
     voltage_B -3600-6235j; 
     voltage_C -3600+6235j; 
     nominal_voltage 7200; 
} 

object node:251 { 
     name R1-12-47-4_node_237; 
     phases ABCN; 
     voltage_A 7200+0.0j; 
     voltage_B -3600-6235j; 
     voltage_C -3600+6235j; 
     nominal_voltage 7200; 
} 

object node:252 { 
     name R1-12-47-4_node_238; 
     phases ABCN; 
     voltage_A 7200+0.0j; 
     voltage_B -3600-6235j; 
     voltage_C -3600+6235j; 
     nominal_voltage 7200; 
} 

object node:253 { 
     name R1-12-47-4_node_239; 
     phases ABCN; 
...